643

C         39.37663        9.81538       14.59487
H         39.37020       10.73226       14.03226
C         42.69459       11.68496       15.58332
H         42.09074       11.22699       16.34677
N         42.07949        8.99429       11.80465
N         40.48080        8.98779       14.61693
N         42.86870       11.09045       14.35150
Zn        42.29171        9.27275       13.78863
C         25.90431       27.87441       10.86477
H         26.89304       27.52447       10.62481
C         26.17713       28.07722        6.94511
H         25.28968       27.67364        7.40009
N         27.70814       31.29799        9.97530
N         25.40817       29.05304       10.34547
N         26.83950       29.15523        7.49355
Zn        26.24948       30.29952        9.00917
C         38.40430       19.53497       22.65891
H         37.41524       19.19227       22.40872
C         38.13163       15.90699       24.15720
H         39.01908       16.20123       23.62531
C         24.05787        8.08558        1.25676
H         24.03697        7.13565        0.75085
N         36.59917       19.83700       26.18319
N         38.89979       19.43843       23.94297
N         37.46894       16.78340       24.98997
N         23.30322        9.15190        0.81439
Zn        38.05864       18.59321       25.56360
C         21.35051       13.12127        4.89235
H         20.31499       13.32148        5.10343
C         24.93197       17.03169        4.38907
H         24.93872       16.80725        5.44131
C         21.61449       18.58727        5.82277
H         22.21850       19.15412        5.13651
C         19.71999       17.18921        2.37962
H         19.58462       18.04891        3.01312
N         22.22863       14.12707        4.54501
N         23.82765       16.77672        3.60172
N         21.44022       17.22764        5.67260
N         20.69698       16.25126        2.64084
Zn        22.01674       16.09096        4.14622
C         34.43811       25.58481        4.38881
H         34.23972       25.69137        5.44079
C         37.44450       27.68106        5.82225
H         37.63357       26.87445        5.13572
N         33.27446       29.37782        4.54501
N         34.76913       26.66867        3.60146
N         36.35400       28.51152        5.67208
Zn        35.08087       28.57993        4.14622
C         29.86985       12.66635       22.65865
H         30.06759       13.69406       22.40872
C         26.86442       14.71638       24.15668
H         26.67568       13.80062       23.62452
N         31.03382       14.07722       26.18292
N         29.53834       12.28523       23.94271
N         27.95444       14.85172       24.98997
Zn        29.22725       13.43555       25.56360
C         43.34217       19.32148       10.86477
H         42.54459       18.63971       10.62507
C         43.38204       18.98398        6.94485
H         43.47641       19.95423        7.39956
C         15.38934       18.89478        7.20450
H         14.69176       19.27340        6.47728
N         45.40485       16.04678        9.97477
N         44.61048       19.16136       10.34574
N         43.98380       17.87116        7.49355
N         14.95864       18.27205        8.35729
Zn        45.26947       17.81036        9.00864
C         18.45762       13.99693       10.74006
H         18.17001       12.96728       10.85847
C         20.96611       16.68380       14.59461
H         21.76385       16.23103       14.03226
C         20.92736       12.87585       15.58306
H         20.83283       13.62807       16.34651
C         16.76504       13.09045       15.41267
H         17.46294       12.53121       16.01178
N         18.90344       14.75351       11.80412
N         19.69764       16.14136       14.61666
N         20.32512       13.02213       14.35150
N         17.19574       13.96974       14.44129
Zn        19.03880       14.43050       13.78889
C         28.18852       23.49125       22.65865
H         28.97966       22.80614       22.40872
C         31.46709       25.06947       24.15720
H         30.76855       25.69127       23.62557
N         28.82886       21.77769       26.18266
N         28.02421       23.96871       23.94297
N         31.03896       24.05745       24.99023
Zn        29.17661       23.66315       25.56360
C         37.09225       13.07532        4.38907
H         37.28373       13.19311        5.44131
C         37.40415        9.42507        5.82277
H         36.61091        9.66510        5.13677
N         40.95924       12.18712        4.54449
N         37.86475       12.24634        3.60146
N         38.66860        9.95368        5.67260
Zn        39.36473       11.02130        4.14622
C         36.11976       29.19292       14.59487
H         35.32861       28.72891       14.03226
C         32.84135       31.13212       15.58332
H         33.54021       30.83779       16.34651
C         19.03205        6.78154       15.41320
N         35.47926       31.94486       11.80412
N         36.28407       30.56295       14.61693
N         33.26948       31.58016       14.35150
Zn        35.13167       31.98904       13.78863
C         22.03860        8.58904        9.61641
H         21.69423        8.45574        8.60618
C         27.21586        8.49631       10.86477
H         27.02439        9.52763       10.62507
C         26.90429        8.63145        6.94511
H         27.69721        8.06432        7.39982
C         24.74564        5.07133        7.20424
H         25.42216        5.48642        6.47701
N         23.34871        8.34705        9.97477
N         26.44288        7.47770       10.34574
N         25.63968        8.66617        7.49381
N         24.42169        5.75569        8.35703
Zn        24.94355        7.58258        9.00890
C         27.21635       28.63191       15.38904
H         27.02535       27.60068       15.62900
C         26.90333       28.49667       19.30843
H         27.69672       29.06353       18.85372
N         23.34855       28.78117       16.27825
N         26.44336       29.65052       15.90807
N         25.63887       28.46205       18.76000
Zn        24.94306       29.54545       17.24438
C         36.11992        7.93530       11.65894
H         35.32926        8.39940       12.22181
C         32.84119        5.99647       10.67075
H         33.53989        6.29071        9.90730
N         35.47926        5.18346       14.44916
N         36.28423        6.56527       11.63688
N         33.26932        5.54806       11.90231
Zn        35.13199        5.13909       12.46492
C         42.26920       25.19868       21.36120
H         42.61356       26.19556       21.15012
C         37.09209       24.05234       21.86474
H         37.28357       23.93455       20.81250
C         37.40398       27.70334       20.43077
H         36.61107       27.46368       21.11704
C         39.56183       28.64509       23.87340
H         38.88580       29.19264       23.23964
N         40.95924       24.94119       21.70880
N         37.86491       24.88114       22.65182
N         38.66860       27.17445       20.58094
N         39.88562       27.33020       23.61270
Zn        39.36425       26.10692       22.10759
C         28.18820       13.63688        3.59490
H         28.97951       14.32208        3.84509
C         31.46645       12.05940        2.09687
H         30.76806       11.43843        2.62929
C         45.27735       20.33665       24.99653
H         46.11030       19.87970       25.50217
N         28.82887       15.35081        0.07036
N         28.02405       13.15951        2.31084
N         31.03880       13.07133        1.26358
N         44.73058       21.52262       25.43916
Zn        29.17629       13.46498        0.68994
C         25.90431        9.25372       15.38878
H         26.89320        9.60375       15.62821
C         26.17729        9.05044       19.30870
H         25.28984        9.45421       18.85346
C         40.24993       33.24824       19.04905
H         40.27083       34.04166       19.77627
N         27.70862        5.83004       16.27878
N         25.40849        8.07527       15.90781
N         26.83950        7.97271       18.76026
N         41.00426       33.31005       17.89599
Zn        26.24899        6.82907       17.24491
C         42.95777       28.14210       15.51348
H         43.99313       27.87645       15.39534
C         39.37663       27.31312       11.65894
H         39.37036       26.39596       12.22155
C         42.69378       25.44270       10.67049
H         42.08978       25.90077        9.90730
C         44.58942       29.15431       10.84140
H         44.72559       28.27038       10.24256
N         42.07981       28.13458       14.44943
N         40.48079       28.14071       11.63688
N         42.86806       26.03749       11.90231
N         43.61210       29.22104       11.81226
Zn        42.29170       27.85556       12.46466
C         24.93213       20.09653       21.86474
H         24.93856       20.32152       20.81250
C         21.61369       18.54151       20.43104
H         22.21770       17.97428       21.11704
N         22.22863       23.00087       21.70880
N         23.82764       20.35141       22.65182
N         21.43925       19.90086       20.58121
Zn        22.01641       21.03698       22.10759
C         38.40446       17.59363        3.59516
H         37.41540       17.93632        3.84536
C         38.13050       21.22104        2.09687
H         39.01812       20.92690        2.62903
N         36.59950       17.29057        0.07036
N         38.89979       17.69007        2.31084
N         37.46862       20.34473        1.26358
Zn        38.05864       18.53436        0.68994
C         45.85017       22.33665       16.63714
H         46.13779       22.56824       17.64737
C         43.34169       17.80656       15.38852
H         42.54427       18.48804       15.62821
C         43.38124       18.14442       19.30870
H         43.47561       17.17417       18.85398
C         47.54292       18.23335       19.04905
H         46.84550       17.85538       19.77654
N         45.40484       21.08135       16.27878
N         44.61048       17.96695       15.90755
N         43.98316       19.25697       18.76000
N         47.11237       18.85580       17.89626
Zn        45.26931       19.31767       17.24464
C         20.96627       20.44423       11.65868
H         21.76385       20.89747       12.22155
C         20.92656       24.25237       10.67075
H         20.83251       23.50006        9.90783
C         48.91878       24.03740       10.84088
H         49.61620       24.59655       10.24151
N         18.90327       22.37490       14.44943
N         19.69764       20.98695       11.63662
N         20.32432       24.10646       11.90257
N         49.34948       23.15774       11.81200
Zn        19.03864       22.69772       12.46492
C         34.43876       11.54332       21.86474
H         34.24117       11.43667       20.81250
C         37.44337        9.44772       20.43077
H         37.63228       10.25442       21.11678
N         33.27430        7.75003       21.70932
N         34.76994       10.45974       22.65209
N         36.35320        8.61670       20.58094
Zn        35.08103        8.54829       22.10759
C         29.87033       24.46187        3.59516
H         30.06840       23.43416        3.84509
C         26.86426       22.41165        2.09661
H         26.67536       23.32733        2.62851
N         31.03366       23.05063        0.07062
N         29.53898       24.84290        2.31084
N         27.95428       22.27632        1.26332
Zn        29.22709       23.69267        0.69021
C         24.93213       27.31312       11.65894
H         24.93856       26.39606       12.22181
C         21.61369       25.44307       10.67075
H         22.21770       25.90077        9.90730
N         22.22863       28.13421       14.44916
N         23.82764       28.14015       11.63688
N         21.43925       26.03777       11.90231
Zn        22.01642       27.85556       12.46466
C         38.40414        9.25409       15.38904
H         37.41556        9.60430       15.62900
C         38.13066        9.05091       19.30843
H         39.01811        9.45431       18.85372
N         36.59950        5.82986       16.27825
N         38.89979        8.07537       15.90807
N         37.46830        7.97289       18.76000
Zn        38.05896        6.82898       17.24464
C         25.90430       17.59326        3.59490
H         26.89336       17.93595        3.84509
C         26.17729       21.22123        2.09661
H         25.28984       20.92662        2.62903
C         40.24992       29.04236       24.99705
H         40.27067       29.99219       25.50270
N         27.70862       17.29113        0.07036
N         25.40849       17.68979        2.31084
N         26.83950       20.34492        1.26332
N         41.00426       27.97586       25.43969
Zn        26.24900       18.53464        0.68994
C         42.95745       24.00695       21.36146
H         43.99297       23.80693       21.15012
C         39.37663       20.09634       21.86501
H         39.37036       20.32106       20.81276
C         42.69379       18.54114       20.43077
H         42.08978       17.97428       21.11704
C         44.58942       19.93948       23.87314
H         44.72543       19.08014       23.23911
N         42.07981       23.00125       21.70906
N         40.48063       20.35132       22.65235
N         42.86806       19.90077       20.58094
N         43.61242       20.87705       23.61244
Zn        42.29186       21.03726       22.10759
C         29.87017       11.54360       21.86474
H         30.06824       11.43667       20.81250
C         26.86426        9.44725       20.43104
H         26.67536       10.25395       21.11704
N         31.03366        7.75012       21.70880
N         29.53898       10.45964       22.65182
N         27.95412        8.61623       20.58121
Zn        29.22677        8.54829       22.10759
C         34.43827       24.46177        3.59490
H         34.24084       23.43407        3.84483
C         37.44353       22.41147        2.09687
H         37.63228       23.32723        2.62903
N         33.27414       23.05100        0.07010
N         34.76978       24.84308        2.31057
N         36.35352       22.27613        1.26358
Zn        35.08086       23.69257        0.68994
C         20.96627       17.80665       15.38878
H         21.76369       18.48814       15.62847
C         20.92672       18.14470       19.30870
H         20.83251       17.17454       18.85346
C         48.91878       18.23335       19.04905
H         49.61620       17.85464       19.77601
N         18.90327       21.08135       16.27878
N         19.69764       17.96676       15.90781
N         20.32432       19.25734       18.76026
N         49.34932       18.85543       17.89599
Zn        19.03864       19.31795       17.24464
C         45.85017       23.13120       15.51348
H         46.13779       24.16085       15.39508
C         43.34169       20.44395       11.65868
H         42.54427       20.89710       12.22129
C         43.38123       24.25256       10.67049
H         43.47561       23.50043        9.90730
C         47.54291       24.03740       10.84088
H         46.84550       24.59729       10.24203
N         45.40484       22.37490       14.44943
N         44.61048       20.98677       11.63688
N         43.98316       24.10608       11.90231
N         47.11238       23.15802       11.81200
Zn        45.26931       22.69763       12.46466
C         36.11992       13.63725        3.59516
H         35.32942       14.32273        3.84536
C         32.84135       12.05940        2.09687
H         33.53989       11.43760        2.62851
N         35.47942       15.35072        0.07088
N         36.28423       13.15979        2.31084
N         33.26932       13.07096        1.26332
Zn        35.13200       13.46507        0.69021
C         27.21635       24.05290       21.86474
H         27.02535       23.93539       20.81250
C         26.90365       27.70306       20.43077
H         27.69672       27.46331       21.11678
N         23.34855       24.94101       21.70906
N         26.44336       24.88178       22.65209
N         25.63887       27.17445       20.58094
Zn        24.94339       26.10664       22.10759
C         28.18820        7.93493       11.65868
H         28.97935        8.39912       12.22103
C         31.46645        5.99675       10.67075
H         30.76806        6.29173        9.90783
C         45.27735       30.34584       10.84140
H         46.11030       30.67025       10.24203
N         28.82887        5.18327       14.44943
N         28.02405        6.56518       11.63662
N         31.03880        5.54843       11.90257
N         44.73074       31.15876       11.81200
Zn        29.17629        5.13881       12.46492
C         42.26951       28.53946       16.63740
H         42.61356       28.67238       17.64737
C         37.09225       28.63145       15.38852
H         37.28373       27.60012       15.62821
C         37.40398       28.49677       19.30870
H         36.61107       29.06390       18.85398
C         39.56216       32.05643       19.04905
H         38.88580       31.64143       19.77654
N         40.95940       28.78107       16.27878
N         37.86523       29.65006       15.90755
N         38.66860       28.46205       18.76000
N         39.88562       31.37234       17.89626
Zn        39.36425       29.54554       17.24464
C         37.09241        8.49659       10.86477
H         37.28373        9.52782       10.62481
C         37.40415        8.63145        6.94511
H         36.61091        8.06469        7.40009
N         40.95924        8.34696        9.97530
N         37.86475        7.47760       10.34547
N         38.66860        8.66608        7.49355
Zn        39.36489        7.58296        9.00917
C         28.18852       29.19320       14.59487
H         28.97967       28.72919       14.03226
C         31.46677       31.13212       15.58332
H         30.76823       30.83816       16.34677
N         28.82887       31.94448       11.80465
N         28.02421       30.56322       14.61693
N         31.03896       31.58016       14.35150
Zn        29.17612       31.98904       13.78863
C         22.03860       11.92945        4.89235
H         21.69423       10.93256        5.10343
C         27.21586       13.07551        4.38881
H         27.02455       13.19357        5.44105
C         26.90397        9.42507        5.82277
H         27.69737        9.66482        5.13677
C         24.74580        8.48276        2.38015
H         25.42232        7.93549        3.01391
N         23.34871       12.18703        4.54501
N         26.44288       12.24699        3.60172
N         25.63984        9.95405        5.67287
N         24.42185        9.79774        2.64111
Zn        24.94339       11.02130        4.14622
C         36.11944       23.49097       22.65865
H         35.32845       22.80577       22.40845
C         32.84167       25.06928       24.15746
H         33.54005       25.69062       23.62531
C         19.03254       16.79231        1.25623
H         18.19943       17.24917        0.75033
N         35.47893       21.77732       26.18319
N         36.28407       23.96862       23.94271
N         33.26932       24.05717       24.99023
N         19.57819       15.60532        0.81386
Zn        35.13199       23.66343       25.56360
C         38.40414       27.87441       10.86477
H         37.41524       27.52438       10.62534
C         38.13131       28.07759        6.94459
H         39.01892       27.67429        7.39956
C         24.05771        3.87980        7.20424
H         24.03681        3.08618        6.47728
N         36.59901       31.29780        9.97477
N         38.89979       29.05313       10.34574
N         37.46862       29.15523        7.49355
N         23.30306        3.81816        8.35703
Zn        38.05864       30.29915        9.00890
C         21.35051        8.98631       10.74006
H         20.31499        9.25205       10.85847
C         24.93197        9.81528       14.59461
H         24.93840       10.73216       14.03200
C         21.61433       11.68524       15.58332
H         22.21850       11.22745       16.34651
C         19.71999        7.97327       15.41293
H         19.58430        8.85710       16.01230
N         22.22847        8.99382       11.80412
N         23.82765        8.98798       14.61666
N         21.44022       11.09073       14.35150
N         20.69650        7.90662       14.44155
Zn        22.01674        9.27256       13.78889
C         39.37663       17.03197        4.38907
H         39.37020       16.80716        5.44105
C         42.69459       18.58708        5.82225
H         42.09074       19.15422        5.13598
N         42.07933       14.12735        4.54501
N         40.48080       16.77690        3.60146
N         42.86871       17.22754        5.67234
Zn        42.29170       16.09096        4.14622
C         25.90430       19.53487       22.65865
H         26.89304       19.19199       22.40872
C         26.17713       15.90699       24.15641
H         25.28984       16.20114       23.62425
N         27.70814       19.83746       26.18292
N         25.40833       19.43806       23.94271
N         26.83950       16.78340       24.98997
Zn        26.24948       18.59377       25.56360
C         18.45762       14.79148        9.61641
H         18.17001       14.55989        8.60618
C         20.96627       19.32129       10.86503
H         21.76385       18.64008       10.62534
C         20.92720       18.98408        6.94511
H         20.83283       19.95433        7.39982
C         16.76504       18.89469        7.20424
H         17.46294       19.27312        6.47728
N         18.90344       16.04687        9.97503
N         19.69764       19.16118       10.34600
N         20.32528       17.87153        7.49381
N         17.19574       18.27196        8.35703
Zn        19.03864       17.81018        9.00890
C         43.34201       16.68380       14.59461
H         42.54459       16.23065       14.03200
C         43.38204       12.87566       15.58332
H         43.47641       13.62779       16.34651
N         45.40485       14.75323       11.80412
N         44.61048       16.14117       14.61693
N         43.98380       13.02204       14.35124
Zn        45.26948       14.43022       13.78889
C         29.87001       25.58462        4.38907
H         30.06775       25.69155        5.44131
C         26.86442       27.68041        5.82277
H         26.67568       26.87343        5.13677
N         31.03398       29.37800        4.54475
N         29.53818       26.66821        3.60172
N         27.95444       28.51115        5.67260
Zn        29.22741       28.58021        4.14622
C         34.43859       12.66617       22.65891
H         34.24069       13.69378       22.40872
C         37.44418       14.71629       24.15720
H         37.63341       13.80043       23.62557
N         33.27446       14.07769       26.18266
N         34.76962       12.28514       23.94324
N         36.35384       14.85181       24.99023
Zn        35.08103       13.43583       25.56360
C         40.89606        8.60175       11.29611
H         39.99704        8.49501       11.88419
C         27.89720       31.11606       11.29585
H         27.35541       30.39095       11.88419
C         36.41059       21.02167       25.57148
H         36.95238       21.33447       24.69199
C         23.41174       13.51677        4.34444
H         24.31076       14.03582        4.04751
C         32.15390       28.65809        4.34444
H         32.15422       27.62036        4.04777
C         32.15438       13.64876       25.57122
H         32.15422       13.02306       24.69146
C         45.15276       15.97438       11.29559
H         44.79585       16.80605       11.88367
C         19.15536       15.97438       11.29559
H         19.51195       16.80642       11.88393
C         27.89720       21.02185       25.57122
H         27.35541       21.33484       24.69146
C         40.89590       13.51705        4.34444
H         39.99688       14.03610        4.04751
C         36.41043       31.11597       11.29559
H         36.95206       30.39077       11.88367
C         23.41158        8.60129       11.29559
H         24.31060        8.49436       11.88393
C         23.41206       28.52675       14.95770
H         24.31060       28.63340       14.36936
C         36.41092        6.01206       14.95770
H         36.95255        6.73690       14.36936
C         40.89622       23.61145       21.90937
H         39.99752       23.09258       22.20683
C         27.89721       16.10646        0.68207
H         27.35557       15.79375        1.56182
C         27.89721        6.01188       14.95796
H         27.35557        6.73708       14.36988
C         40.89622       28.52684       14.95796
H         39.99768       28.63405       14.36962
C         23.41206       23.61117       21.90937
H         24.31060       23.09202       22.20604
C         36.41092       16.10628        0.68233
H         36.95255       15.79319        1.56182
C         45.15308       21.15375       14.95796
H         44.79649       20.32171       14.36962
C         19.15504       21.15375       14.95796
H         19.51227       20.32208       14.36988
C         32.15390        8.46967       21.90964
H         32.15406        9.50749       22.20656
C         32.15390       23.47983        0.68207
H         32.15390       24.10544        1.56156
C         40.14752        7.95869       15.41740
H         40.80989        7.14020       15.65026
C         24.16076       29.16916       10.83615
H         23.49791       29.98737       10.60328
C         40.14768       19.93966       23.88942
H         40.81021       19.99266       24.73872
C         24.16092       17.18837        2.36466
H         23.49807       17.13537        1.51535
C         34.95933       26.17422        2.36439
H         35.24469       26.77486        1.51535
C         29.34879       10.95410       23.88889
H         29.06310       10.35346       24.73793
C         45.33523       20.18387       10.83641
H         46.37540       20.34872       10.60328
C         18.97289       16.94426       15.41713
H         17.93287       16.77969       15.65026
C         26.96635       24.79871       23.88915
H         26.58854       25.34598       24.73845
C         37.34145       12.32942        2.36439
H         37.71893       11.78215        1.51509
C         37.34193       30.78887       15.41740
H         37.71909       31.77202       15.65026
C         26.96603        6.33898       10.83615
H         26.58887        5.35582       10.60328
C         26.96635       30.78915       15.41740
H         26.58854       31.77230       15.65026
C         37.34177        6.33898       10.83615
H         37.71894        5.35582       10.60328
C         37.34193       24.79862       23.88889
H         37.71909       25.34589       24.73819
C         26.96619       12.32951        2.36466
H         26.58870       11.78224        1.51535
C         24.16092        7.95888       15.41713
H         23.49807        7.14048       15.65026
C         40.14720       29.16943       10.83615
H         40.81021       29.98811       10.60302
C         24.16076       19.93947       23.88889
H         23.49807       19.99275       24.73819
C         40.14752       17.18856        2.36439
H         40.80989       17.13528        1.51509
C         45.33523       16.94463       15.41740
H         46.37540       16.77978       15.65053
C         18.97305       20.18359       10.83641
H         17.93287       20.34844       10.60328
C         34.95932       10.95391       23.88915
H         35.24453       10.35336       24.73845
C         29.34863       26.17375        2.36466
H         29.06310       26.77430        1.51535
C         43.65020       11.92704       13.64764
H         43.95760       11.74920       12.62953
C         27.89704       29.38079        6.69570
H         28.62517       30.15704        6.86714
C         36.41139       16.10637       25.46857
H         35.68246       16.52684       26.14276
C         20.65872       16.84290        6.69597
H         20.35101       15.82373        6.86767
C         36.41108       29.38041        6.69544
H         35.68230       30.15630        6.86740
C         27.89688       16.10609       25.46857
H         28.62517       16.52675       26.14328
C         43.65020       16.84280        6.69570
H         43.95760       15.82364        6.86740
C         20.65856       11.92704       13.64764
H         20.35101       11.74947       12.62953
C         32.15406       23.47973       25.46857
H         32.15390       22.63850       26.14276
C         39.39303        9.46916        6.69570
H         40.42935        9.71160        6.86714
C         32.15422       31.83867       13.64764
H         32.15390       32.19380       12.62953
C         24.91574        9.46953        6.69597
H         23.87909        9.71235        6.86767
C         24.91509       27.65934       19.55811
H         23.87845       27.41652       19.38641
C         32.15390        5.28927       12.60617
H         32.15422        4.93377       13.62401
C         39.39238       27.65860       19.55758
H         40.42902       27.41578       19.38588
C         32.15390       13.64830        0.78472
H         32.15422       14.48944        0.11026
C         27.89656        7.74688       19.55811
H         28.62517        6.97090       19.38667
C         43.64956       25.20090       12.60617
H         43.95727       25.37875       13.62428
C         20.65759       20.28569       19.55811
H         20.34956       21.30467       19.38667
C         36.41108       21.02176        0.78498
H         35.68279       20.60128        0.11000
C         43.64956       20.28551       19.55758
H         43.95727       21.30468       19.38588
C         20.65759       25.20146       12.60617
H         20.34956       25.37949       13.62401
C         36.41108        7.74734       19.55784
H         35.68263        6.97108       19.38641
C         27.89656       21.02185        0.78446
H         28.62517       20.60156        0.11000
C         23.55354       10.15538        1.67655
H         23.08586       11.12507        1.62011
C         20.57222       15.32046        1.67629
H         21.17801       14.43031        1.61984
C         16.07727       17.91506        9.01573
H         16.07727       17.37485        9.94905
C         16.07727       14.47180       13.88524
H         16.07711       15.17139       13.06482
C         20.57206        6.68696       13.88550
H         21.17801        6.33731       13.06508
C         23.55338        4.96552        9.01573
H         23.08570        5.23553        9.94878
C         40.75362       26.97238       24.57752
H         41.22130       26.00250       24.63423
C         43.73654       21.80767       24.57726
H         43.12995       22.69735       24.63397
C         40.75394       32.16270       17.23729
H         41.22130       31.89288       16.30398
C         43.73653       30.44089       12.36805
H         43.12995       30.79091       13.18794
C         48.23053       19.21232       17.23729
H         48.23069       19.75226       16.30398
C         48.23053       22.65558       12.36778
H         48.23069       21.95563       13.18794
