64
XYZ file: The points taken from the irreducible volume are shown as Krypton atoms
C          0.865000     0.241000     3.436000
C          2.147000     0.384000     2.716000
C          2.526000    -0.802000     2.212000
C         -0.836000    -1.527000     3.171000
C         -1.874000    -0.496000     3.086000
C         -1.469000     0.927000     3.204000
C         -0.049000     1.236000     3.390000
C          2.430000     1.636000     1.959000
C          1.506000     2.600000     1.890000
C          0.211000     2.444000     2.598000
C          3.224000    -0.867000     0.895000
C          3.492000     0.378000     0.149000
C         -1.206000    -2.557000     2.195000
C          1.949000    -2.903000     0.401000
C          2.950000    -1.863000     0.037000
C         -2.751000    -0.869000     2.145000
C         -2.331000    -2.162000     1.582000
C         -0.933000     2.795000     1.993000
C         -1.986000     1.843000     2.375000
C          1.064000    -3.330000    -0.507000
C         -0.235000    -3.538000     0.148000
C          3.339000     0.070000    -1.284000
C          3.007000    -1.363000    -1.350000
C         -2.979000     1.433000     1.346000
C         -3.334000     0.146000     1.234000
C         -1.464000    -3.162000    -0.589000
C         -2.523000    -2.439000     0.133000
C          2.126000    -1.810000    -2.271000
C          1.088000    -2.788000    -1.890000
C          2.225000     2.225000    -1.633000
C          2.750000     0.942000    -2.135000
C          0.202000     3.525000    -0.078000
C         -0.938000     3.345000     0.606000
C         -3.492000    -0.191000    -0.189000
C         -3.070000    -1.531000    -0.687000
C         -0.023000     3.192000    -1.491000
C          1.064000     2.516000    -2.247000
C          1.804000     0.450000    -3.148000
C          1.509000    -0.867000    -3.216000
C         -0.066000    -2.496000    -2.515000
C         -1.381000    -2.688000    -1.839000
C          0.111000    -1.302000    -3.362000
C          0.728000     1.451000    -3.211000
C         -0.120000    -3.252000     1.451000
C          1.264000    -2.836000     1.697000
C          1.534000    -1.837000     2.564000
C          0.462000    -1.175000     3.332000
C          3.102000     1.566000     0.657000
C          2.446000     2.561000    -0.198000
C          1.504000     3.169000     0.535000
C         -2.400000    -1.645000    -1.989000
C         -0.876000    -0.380000    -3.451000
C         -2.152000    -0.546000    -2.732000
C         -3.247000     0.902000    -0.923000
C         -2.907000     1.998000    -0.008000
C         -2.548000     0.785000    -2.234000
C         -1.964000     2.900000    -0.350000
C         -1.295000     2.812000    -1.656000
C         -0.553000     1.054000    -3.364000
C         -1.629000     1.699000    -2.587000
He         1.099162     2.632207     2.182614
He        -1.175826     1.865466     1.316861
He        -0.691020     1.991597    -0.068798
He        -0.041760     0.012140    -0.021820
